Info: SIMULATION PARAMETERS:
Info: TIMESTEP               2
Info: NUMBER OF STEPS        100000000
Info: STEPS PER CYCLE        10
Info: PERIODIC CELL BASIS 1  41.948 0 0
Info: PERIODIC CELL BASIS 2  0 42.144 0
Info: PERIODIC CELL BASIS 3  0 0 33.933
Info: PERIODIC CELL CENTER   -0.112 0.126 -0.0455
Info: WRAPPING WATERS AROUND PERIODIC BOUNDARIES ON OUTPUT.
Info: WRAPPING TO IMAGE NEAREST TO PERIODIC CELL CENTER.
Info: FIRST LDB TIMESTEP     50
Info: LAST LDB TIMESTEP     -1
Info: HOM BACKGROUND SCALING 1
Info: PME BACKGROUND SCALING 1
Info: MIN ATOMS PER PATCH    40
Info: INITIAL TEMPERATURE    298
Info: CENTER OF MASS MOVING INITIALLY? NO
Info: REMOVING CENTER OF MASS DRIFT DURING SIMULATION
Info: DIELECTRIC             1
Info: EXCLUDE                SCALED ONE-FOUR
Info: 1-4 ELECTROSTATICS SCALED BY 0.833333
Info: MODIFIED 1-4 VDW PARAMETERS WILL BE USED
Info: DCD FILENAME           ens_equil_0_3.dcd
Info: DCD FREQUENCY          10000
Info: DCD FIRST STEP         98710000
Info: DCD FILE WILL CONTAIN UNIT CELL DATA
Info: XST FILENAME           ens_equil_0_3.xst
Info: XST FREQUENCY          10000
Info: VELOCITY DCD FILENAME    ens_equil_0_3vel.dcd
Info: VELOCITY DCD FREQUENCY   10000
Info: VELOCITY DCD FIRST STEP  98710000
Info: NO FORCE DCD OUTPUT
Info: OUTPUT FILENAME        ens_equil_0_3
Info: BINARY OUTPUT FILES WILL BE USED
Info: RESTART FILENAME       ens_equil_0_3.restart
Info: RESTART FREQUENCY      10000
Info: BINARY RESTART FILES WILL BE USED
Info: CUTOFF                 8
Info: PAIRLIST DISTANCE      8
Info: PAIRLIST SHRINK RATE   0.01
Info: PAIRLIST GROW RATE     0.01
Info: PAIRLIST TRIGGER       0.3
Info: PAIRLISTS PER CYCLE    2
Info: PAIRLISTS ENABLED
Info: MARGIN                 0
Info: HYDROGEN GROUP CUTOFF  2.5
Info: PATCH DIMENSION        10.5
Info: ENERGY OUTPUT STEPS    10000
Info: CROSSTERM ENERGY INCLUDED IN DIHEDRAL
Info: TIMING OUTPUT STEPS    10000
Info: COLLECTIVE VARIABLES CALCULATION REQUESTED
Info: COLLECTIVE VARIABLES CONFIGURATION   colvar.script
Info: LANGEVIN DYNAMICS ACTIVE
Info: LANGEVIN TEMPERATURE   298
Info: LANGEVIN USING BBK INTEGRATOR
Info: LANGEVIN DAMPING COEFFICIENT IS 5 INVERSE PS
Info: LANGEVIN DYNAMICS NOT APPLIED TO HYDROGENS
Info: PARTICLE MESH EWALD (PME) ACTIVE
Info: PME TOLERANCE               1e-06
Info: PME EWALD COEFFICIENT       0.39467
Info: PME INTERPOLATION ORDER     4
Info: PME GRID DIMENSIONS         44 44 36
Info: PME MAXIMUM GRID SPACING    1
Info: FULL ELECTROSTATIC EVALUATION FREQUENCY      1
Info: USING VERLET I (r-RESPA) MTS SCHEME.
Info: C1 SPLITTING OF LONG RANGE ELECTROSTATICS
Info: PLACING ATOMS IN PATCHES BY HYDROGEN GROUPS
Info: RIGID BONDS TO HYDROGEN : ALL
Info:         ERROR TOLERANCE : 1e-08
Info:          MAX ITERATIONS : 100
Info: RIGID WATER USING SETTLE ALGORITHM
Info: RANDOM NUMBER SEED     1519324914
Info: USE HYDROGEN BONDS?    NO
Info: Using AMBER format force field!
Info: AMBER PARM FILE        ../building/holo.parm7
Info: AMBER COORDINATE FILE  ../building/holo.rst7
Info: Exclusions will be read from PARM file!
Info: SCNB (VDW SCALING)     2
Info: USING ARITHMETIC MEAN TO COMBINE L-J SIGMA PARAMETERS
Info: BINARY COORDINATES     ens_equil_0_2.restart.coor
Info: FIRST TIMESTEP         98700000
Info: SUMMARY OF PARAMETERS:
Info: 18 BONDS
Info: 26 ANGLES
Info: 31 DIHEDRAL
Info: 0 IMPROPER
Info: 0 CROSSTERM
Info: 0 VDW
Info: 91 VDW_PAIRS
Info: 0 NBTHOLE_PAIRS
Info: LONG-RANGE LJ: APPLYING ANALYTICAL CORRECTIONS TO ENERGY AND PRESSURE
Info: LONG-RANGE LJ: AVERAGE A AND B COEFFICIENTS 558280 AND 567.377
Info: STRUCTURE SUMMARY:
Info: 5322 ATOMS
Info: 5329 BONDS
Info: 319 ANGLES
Info: 596 DIHEDRALS
Info: 0 IMPROPERS
Info: 0 CROSSTERMS
Info: 6126 EXCLUSIONS
Info: 5232 RIGID BONDS
Info: 10734 DEGREES OF FREEDOM
Info: 1808 HYDROGEN GROUPS
Info: 4 ATOMS IN LARGEST HYDROGEN GROUP
Info: 1808 MIGRATION GROUPS
Info: 4 ATOMS IN LARGEST MIGRATION GROUP
Info: TOTAL MASS = 32266.6 amu
Info: TOTAL CHARGE = -9.94559e-05 e
Info: MASS DENSITY = 0.893189 g/cm^3
Info: ATOM DENSITY = 0.0887167 atoms/A^3
Info: ADDED 0 IMPLICIT EXCLUSIONS
Info: NONBONDED TABLE R-SQUARED SPACING: 0.0625
Info: NONBONDED TABLE SIZE: 705 POINTS
Info: REDUCING NUMBER OF PATCHES TO IMPROVE LOAD BALANCE
Info: REMOVING COM VELOCITY 0.135472 -0.0839319 0.0718902
ETITLE: TS BOND ANGLE DIHED IMPRP ELECT VDW BOUNDARY MISC KINETIC TOTAL TEMP POTENTIAL TOTAL3 TEMPAVG PRESSURE GPRESSURE VOLUME PRESSAVG GPRESSAVG
ENERGY: 98700000 33.4291 91.1117 94.6833 0.0000 -18277.2111 1259.7455 0.0000 0.0092 3154.9631 -13643.2691 295.8170 -16798.2322 -13635.7098 295.8170 -3611.2905 -3609.6787 59988.6750 -3611.2905 -3609.6787
ENERGY: 98960000 38.9350 98.9942 87.7676 0.0000 -18424.0893 1262.7382 0.0000 0.0026 3170.2688 -13765.3829 297.2521 -16935.6517 -13761.2360 298.5744 -3708.0460 -3707.1679 59988.6750 -3550.6348 -3550.5994
ENERGY: 99220000 37.2903 103.0268 94.3868 0.0000 -18517.5124 1327.7730 0.0000 0.3125 3159.5288 -13795.1941 296.2451 -16954.7229 -13783.7764 296.2186 -3582.8828 -3595.3360 59988.6750 -3533.5570 -3533.6361
ENERGY: 99480000 29.6192 95.2314 99.7169 0.0000 -18197.8700 1179.0092 0.0000 0.3574 3222.0586 -13571.8773 302.1080 -16793.9359 -13565.4932 298.8273 -3738.9597 -3731.8127 59988.6750 -3580.0038 -3580.1389
ENERGY: 99740000 36.7236 93.3517 98.1323 0.0000 -18493.8934 1346.4810 0.0000 0.6309 3166.4849 -13752.0891 296.8973 -16918.5740 -13749.4740 298.0108 -3407.4137 -3397.3424 59988.6750 -3548.9228 -3548.8742
ENERGY: 100000000 38.6005 79.4163 96.2253 0.0000 -18359.5579 1233.3525 0.0000 0.0443 3174.6008 -13737.3182 297.6582 -16911.9189 -13729.8445 296.0432 -4001.2027 -4019.7334 59988.6750 -3626.1181 -3626.1247
